Geom Title=
Program Version=6.60
Viewing Rectangle= 0 , 1 , 1 , 0 

River Reach=river           ,river_reach     
Reach XY= 2 
  1.0014430014430.84704184704185-0.31313131313130.13997113997114
Rch Text X Y=0.6727994,0.6702742
Reverse River Text= 0 

Type RM Length L Ch R = 1 ,11      ,500,500,500
Node Last Edited Time=Aug-27-2025 01:38:22
#Sta/Elev= 40 
       0    5.11    6.27    3.91   14.37    2.04   22.48     .17   30.59    -1.7
   38.11    -1.9   47.82    -2.8   63.81    -2.4   78.43    -3.5   93.69      -4
  104.77    -3.5  115.63      -3   129.3    -2.5  146.62    -2.2  165.02    -1.7
  179.77    -1.3  188.71    -1.5   197.3     -.1  203.64      .5  214.11       1
  225.01     1.3  234.75     1.5  241.98     1.6  249.87     1.8   259.3     1.8
  268.95     1.6  279.01     1.1  288.37      .6  298.06     1.6  312.98     1.4
  325.97     1.5  338.21     1.8  347.93     1.9   368.8     1.9  394.41     2.4
  420.03    2.91  445.64    3.41  471.26    3.92  495.77    4.25  510.64    4.55
#Mann= 3 ,0,0
       0    .023       0       0     .02       0  510.64    .023       0
Bank Sta=0,510.64
XS Rating Curve= 0 ,0
XS HTab Horizontal Distribution= 5 , 5 , 5 
Exp/Cntr=0.3,0.1

Type RM Length L Ch R = 1 ,10      ,500,500,500
Node Last Edited Time=Aug-27-2025 01:45:41
#Sta/Elev= 37 
       0    5.11    5.85    3.91   22.48     -.5   35.24    -2.8    49.8    -3.9
   62.29    -3.7   76.61    -3.2   86.77    -2.8    98.1    -2.1  109.06    -1.7
  120.37    -1.8  131.69      -2  143.54     -.7  152.38      .1  162.74      .7
  175.63      .8   185.5     1.1  199.21     1.4  208.66     1.5  218.35     1.6
  228.82     1.8   236.6     1.7  243.48       2  252.36       2  259.49     1.8
  269.14     1.8  280.35     1.6  291.26     1.5  302.35     1.4  309.69     1.5
  322.01     1.8  336.95     1.7  359.69    2.44  382.44    3.18  405.19    3.92
  430.46    4.25  442.94    4.45
#Mann= 3 ,0,0
       0    .023       0       0     .02       0  442.94    .023       0
Bank Sta=0,442.94
XS Rating Curve= 0 ,0
XS HTab Horizontal Distribution= 5 , 5 , 5 
Exp/Cntr=0.3,0.1

Type RM Length L Ch R = 1 ,9       ,500,500,500
Node Last Edited Time=Aug-27-2025 01:46:58
#Sta/Elev= 28 
       0    5.28    3.76    3.91    10.1    1.25   18.75    -.83    27.4    -2.9
   40.89    -3.3   50.84    -3.1   60.76    -3.2   69.86    -2.9   77.41    -3.3
   88.94    -3.1   97.64    -3.3  106.54    -3.9  113.98    -3.8  130.33      -1
  141.81      .1  157.72      .7  176.75      .9  195.78     1.1  214.82     1.3
  233.85     1.5  255.33     1.4  267.51     1.2  289.67     1.4  310.35    2.24
  331.03    3.08  351.71    3.92  381.96    4.35
#Mann= 3 ,0,0
       0    .023       0       0     .02       0  381.96    .023       0
Bank Sta=0,381.96
XS Rating Curve= 0 ,0
XS HTab Horizontal Distribution= 5 , 5 , 5 
Exp/Cntr=0.3,0.1

Type RM Length L Ch R = 1 ,8       ,500,500,500
Node Last Edited Time=Aug-27-2025 01:48:43
#Sta/Elev= 33 
       0    4.35    2.54    3.91   10.64      .8   23.99      .4   34.84     -.3
   46.47    -1.1   58.65    -1.4   69.55    -1.5   80.28    -1.7   90.37    -1.8
  100.39    -2.3  110.44    -2.7  120.49    -2.9  130.31    -3.5  139.91    -4.4
  149.21    -5.8  158.72    -6.6  168.44    -5.1     178    -4.6  191.49    -1.5
  201.28     1.5  212.69     1.5  230.12     1.9  246.41     2.1  256.77     1.7
  267.14     1.3  275.15     1.1  286.69     1.2  298.94    2.11  311.19    3.01
  323.44    3.92  341.69    4.11  350.96    4.25
#Mann= 3 ,0,0
       0    .023       0       0     .02       0  350.96    .023       0
Bank Sta=0,350.96
XS Rating Curve= 0 ,0
XS HTab Horizontal Distribution= 5 , 5 , 5 
Exp/Cntr=0.3,0.1

Type RM Length L Ch R = 1 ,7       ,500,500,500
Node Last Edited Time=Aug-27-2025 01:50:01
#Sta/Elev= 33 
       0    6.86    20.8    3.91      40    3.44   59.21    2.97   78.41     2.5
   94.77     2.4  101.45     2.1   114.4     1.9   126.3     1.6  137.48     1.5
  148.89     1.4  156.79     1.2  167.72      .9  178.24      .5  191.54      .2
  201.99       0  212.41     -.3  222.74     -.6  233.54    -1.3  241.82    -2.4
  254.65    -2.7  265.67    -2.8  276.56    -3.2  285.35    -3.4  294.83    -4.3
  302.32    -4.7  311.05    -4.5  321.14    -3.9  330.97    -2.9  339.01    -1.2
  346.12     -.4  351.52    3.91  353.55    4.91
#Mann= 3 ,0,0
       0    .023       0       0     .02       0  353.55    .023       0
Bank Sta=0,353.55
XS Rating Curve= 0 ,0
XS HTab Horizontal Distribution= 5 , 5 , 5 
Exp/Cntr=0.3,0.1

Type RM Length L Ch R = 1 ,6       ,500,500,500
Node Last Edited Time=Aug-27-2025 01:51:35
#Sta/Elev= 31 
       0    7.54   21.19    3.91   34.97    3.37   48.75    2.84   62.53     2.3
   78.62     2.2   88.52     1.9   98.69     1.8  111.78     1.8  123.29     1.5
   134.6     1.5  143.06     1.4  154.16       1  164.56      .3  178.99     -.5
   189.3    -1.4   199.8    -2.5  210.31    -3.8  219.44    -5.1  229.86    -6.8
  239.55    -8.6   243.7    -8.6  254.17    -6.6  264.07    -3.5  268.99   -2.55
  273.62   -1.92  281.15    -1.6  287.65     .13  294.14    1.86  300.64    3.59
  305.05    4.16
#Mann= 3 ,0,0
       0    .023       0       0     .02       0  305.05    .023       0
Bank Sta=0,305.05
XS Rating Curve= 0 ,0
XS HTab Horizontal Distribution= 5 , 5 , 5 
Exp/Cntr=0.3,0.1

Type RM Length L Ch R = 1 ,5       ,500,500,500
Node Last Edited Time=Aug-27-2025 03:14:08
#Sta/Elev= 24 
       0    6.98   13.71    3.91   22.47    3.11   31.24     2.3   50.88     2.1
   65.94       2   82.95     1.9   93.44     1.3  105.79      .9  115.05    -3.9
  125.07    -5.2  134.94    -4.7  145.93    -4.6  156.66    -4.4  168.62    -4.3
  179.29    -4.4  194.42    -4.9  211.17      -5   219.1    -4.8  225.29    -4.3
  232.12    -2.4   237.4    -1.3  239.85    3.95  241.89    4.79
#Mann= 3 ,0,0
       0    .023       0       0     .02       0  241.89    .023       0
Bank Sta=0,241.89
XS Rating Curve= 0 ,0
XS HTab Horizontal Distribution= 5 , 5 , 5 
Exp/Cntr=0.3,0.1

Type RM Length L Ch R = 1 ,4       ,500,500,500
Node Last Edited Time=Aug-27-2025 03:13:48
#Sta/Elev= 31 
       0    6.91   11.53    5.23   15.73    3.91   21.05     2.8   25.39     2.7
   28.46     2.7   31.33     2.5   35.95     1.9   41.91     1.6    47.8     1.4
   53.77       1    59.1       0   66.85    -2.8   72.67    -3.4   83.11    -3.4
   96.44    -3.6  109.47    -3.5  120.58    -3.6   131.3    -3.5  141.01    -3.8
  152.08    -3.7  161.75    -3.3   172.9    -3.6  182.61    -3.1  190.38    -2.9
  199.39      -3  207.55    -3.1   218.2    -3.4  222.72   -2.11  226.97    3.91
  231.56    4.16
#Mann= 3 ,0,0
       0    .023       0       0     .02       0  231.56    .023       0
Bank Sta=0,231.56
XS Rating Curve= 0 ,0
XS HTab Horizontal Distribution= 5 , 5 , 5 
Exp/Cntr=0.3,0.1

Type RM Length L Ch R = 1 ,3       ,500,500,500
Node Last Edited Time=Aug-27-2025 03:15:08
#Sta/Elev= 19 
       0    6.89   17.03     .85   30.19    -.55   43.37    -.34   54.83    -.76
   66.32   -1.18   77.17    -.84   88.03     -.5  102.01    -.84  111.64   -1.06
  121.28   -1.28  130.92    -1.5   139.9   -1.38  148.89   -1.25  161.07     .78
  174.93     .51  181.29     .08  208.03    4.27  211.32     5.5
#Mann= 3 ,0,0
       0    .023       0       0     .02       0  211.32    .023       0
Bank Sta=0,211.32
XS Rating Curve= 0 ,0
XS HTab Horizontal Distribution= 5 , 5 , 5 
Exp/Cntr=0.3,0.1

Type RM Length L Ch R = 1 ,2       ,500,500,500
Node Last Edited Time=Aug-27-2025 03:15:57
#Sta/Elev= 15 
       0    4.06   20.72    3.65   40.07     .85   56.13    -.25   71.28    -.54
   93.53     -.9  115.78   -1.25  139.58   -1.11  161.03    -.82  182.49    -.54
  203.94    -.25  230.55     .56  246.69    2.44  250.54    3.87  258.54    5.16
#Mann= 3 ,0,0
       0    .023       0       0     .02       0  258.54    .023       0
Bank Sta=0,258.54
XS Rating Curve= 0 ,0
XS HTab Horizontal Distribution= 5 , 5 , 5 
Exp/Cntr=0.3,0.1

Type RM Length L Ch R = 1 ,1       ,0,0,0
Node Last Edited Time=Aug-27-2025 01:40:58
#Sta/Elev= 15 
       0    4.06   20.72    3.65   40.07     .85   56.13    -.25   71.28    -.54
   93.53     -.9  115.78   -1.25  139.58   -1.11  161.03    -.82  182.49    -.54
  203.94    -.25  230.55     .56  246.69    2.44  250.54    3.87  258.54    5.16
#Mann= 3 ,0,0
       0    .023       0       0     .02       0  258.54    .023       0
Bank Sta=0,258.54
XS Rating Curve= 0 ,0
XS HTab Horizontal Distribution= 5 , 5 , 5 
Exp/Cntr=0.3,0.1

LCMann Time=Dec-30-1899 00:00:00
LCMann Region Time=Dec-30-1899 00:00:00
LCMann Table=0
Chan Stop Cuts=-1 



Use User Specified Reach Order=0
GIS Ratio Cuts To Invert=-1
GIS Limit At Bridges=0
Composite Channel Slope=5
