Flow Title=100yr period
Program Version=6.60
Number of Profiles= 1 
Profile Names=PF 1
River Rch & RM=river,river_reach     ,11      
    5500
Boundary for River Rch & Prof#=river,river_reach     , 1 
Up Type= 0 
Dn Type= 1 
Dn Known WS=7.85
DSS Import StartDate=
DSS Import StartTime=
DSS Import EndDate=
DSS Import EndTime=
DSS Import GetInterval= 0 
DSS Import Interval=
DSS Import GetPeak= 0 
DSS Import FillOption= 0 
