Geom Title=interpolated_geometry
Program Version=6.60
Viewing Rectangle= 0 , 1 , 1 , 0 

River Reach=river           ,river_reach     
Reach XY= 2 
  1.0014430014430.84704184704185-0.31313131313130.13997113997114
Rch Text X Y=0.6727994,0.6702742
Reverse River Text= 0 

Type RM Length L Ch R = 1 ,11      ,100,100,100
Node Last Edited Time=Aug-27-2025 01:38:22
#Sta/Elev= 40 
       0    5.11    6.27    3.91   14.37    2.04   22.48     .17   30.59    -1.7
   38.11    -1.9   47.82    -2.8   63.81    -2.4   78.43    -3.5   93.69      -4
  104.77    -3.5  115.63      -3   129.3    -2.5  146.62    -2.2  165.02    -1.7
  179.77    -1.3  188.71    -1.5   197.3     -.1  203.64      .5  214.11       1
  225.01     1.3  234.75     1.5  241.98     1.6  249.87     1.8   259.3     1.8
  268.95     1.6  279.01     1.1  288.37      .6  298.06     1.6  312.98     1.4
  325.97     1.5  338.21     1.8  347.93     1.9   368.8     1.9  394.41     2.4
  420.03    2.91  445.64    3.41  471.26    3.92  495.77    4.25  510.64    4.55
#Mann= 3 ,0,0
       0    .023       0       0     .02       0  510.64    .023       0
Bank Sta=0,510.64
XS Rating Curve= 0 ,0
XS HTab Starting El and Incr=-3.85,0.3, 30 
XS HTab Horizontal Distribution= 5 , 5 , 5 
Exp/Cntr=0.3,0.1

Type RM Length L Ch R = 1 ,10.800* ,100,100,100
Node Last Edited Time=Aug-27-2025 03:22:02
#Sta/Elev= 73 
       0    5.11   5.683   4.013   9.975   3.035  13.024   2.319  20.374    .595
  27.724   -1.13  34.539  -1.502   38.33   -1.93   43.34  -2.446  57.832  -2.432
  60.086   -2.63  71.082  -3.457  84.912   -3.98  95.865  -3.547  98.007   -3.46
 106.601  -3.083 113.021   -2.85 120.115  -2.587 123.673   -2.51 135.552  -2.204
 137.237  -2.168 147.043  -1.884 155.427  -1.714 158.901  -1.644 170.009  -1.437
  170.77  -1.454 178.847  -1.431 183.194   -.767 187.339   -.148 192.462    .332
 193.606    .433 203.324    .916 203.957    .941 214.732   1.197 216.839   1.235
 224.361   1.404 227.187   1.452 231.508   1.518 239.308   1.711 241.561    1.72
 248.631   1.734 251.469   1.692  258.17   1.593 261.628   1.461 268.115   1.224
 272.606   1.046 277.369    .828 280.763   1.103 286.948   1.671 287.976   1.669
 297.286   1.568 301.697   1.496 304.762   1.499 314.539    1.56 314.879   1.567
 326.632    1.76 336.248   1.823 338.071    1.82 349.698     1.8  356.88   1.819
 357.394   1.828 370.311   2.092 382.197   2.265 385.975   2.321 407.525   2.802
 409.816   2.852 432.842   3.359 433.669   3.377 457.521    3.91  458.17   3.922
   482.4   4.246 484.015   4.276   497.1    4.53
#Mann= 2 ,0,0
       0     .02       0   497.1    .023       0
Bank Sta=0,497.1
XS Rating Curve= 0 ,0
XS HTab Starting El and Incr=-3.83,0.3, 30 
XS HTab Horizontal Distribution= 5 , 5 , 5 
Exp/Cntr=0.3,0.1

Type RM Length L Ch R = 1 ,10.600* ,100,100,100
Node Last Edited Time=Aug-27-2025 03:22:02
#Sta/Elev= 73 
       0    5.11   5.095   4.117   8.943   3.254  11.677   2.598  18.268   1.019
  24.858    -.56  30.969  -1.104  34.367  -1.573  38.859  -2.092  51.853  -2.465
  53.875  -2.672  63.733  -3.415  76.134   -3.96  86.961  -3.593  89.078   -3.52
  97.573  -3.166 103.918  -2.937 110.931  -2.673 114.447  -2.583 126.189  -2.178
 127.855  -2.137 137.547  -1.838 145.835  -1.728 149.268  -1.683 160.248  -1.575
     161   -1.59 168.984  -1.362  173.28    -.75 177.377   -.197 182.442    .274
 183.573    .365 193.178    .862 193.803    .882 204.454   1.094 206.536   1.126
 213.972   1.307 216.765   1.364 221.037   1.436 228.747   1.621 230.973    1.64
 237.961   1.669 240.767   1.644 247.391   1.586 250.809   1.496 257.221   1.347
 261.659   1.234 266.367   1.057 269.722   1.253 275.836   1.743 276.852   1.752
 286.055   1.676 290.415   1.593 293.444   1.574 303.108    1.62 303.444   1.625
 315.062    1.72 324.567   1.746 326.368    1.74 337.861     1.7  344.96   1.737
 345.468   1.746 358.236   2.019 369.985    2.13 373.719   2.166  395.02   2.694
 397.285   2.749 420.045   3.308 420.862   3.328 444.438   3.912  445.08   3.923
  469.03   4.242 470.626    4.27  483.56    4.51
#Mann= 2 ,0,0
       0     .02       0  483.56    .023       0
Bank Sta=0,483.56
XS Rating Curve= 0 ,0
XS HTab Starting El and Incr=-3.81,0.3, 30 
XS HTab Horizontal Distribution= 5 , 5 , 5 
Exp/Cntr=0.3,0.1

Type RM Length L Ch R = 1 ,10.400* ,100,100,100
Node Last Edited Time=Aug-27-2025 03:22:02
#Sta/Elev= 73 
       0    5.11   4.508    4.22   7.912   3.473  10.331   2.877  16.161   1.444
  21.992     .01  27.398   -.706  30.405  -1.215  34.379  -1.738  45.875  -2.497
  47.663  -2.715  56.385  -3.372  67.356   -3.94  78.056   -3.64  80.149   -3.58
  88.544  -3.248  94.815  -3.025 101.746   -2.76 105.222  -2.655 116.826  -2.152
 118.472  -2.105 128.052  -1.792 136.242  -1.742 139.636  -1.722 150.487  -1.712
  151.23  -1.727  159.12  -1.293 163.367   -.733 167.416   -.245 172.421    .216
 173.539    .298 183.032    .808  183.65    .823 194.177    .991 196.234   1.018
 203.583   1.211 206.343   1.276 210.565   1.354 218.185   1.532 220.386    1.56
 227.292   1.603 230.064   1.596 236.611    1.58 239.989    1.53 246.326   1.471
 250.713   1.423 255.366   1.285 258.681   1.402 264.724   1.814 265.728   1.834
 274.823   1.784 279.132   1.689 282.126    1.65 291.677    1.68  292.01   1.683
 303.491    1.68 312.885    1.67 314.665    1.66 326.024     1.6  333.04   1.656
 333.542   1.664  346.16   1.946 357.772   1.994 361.462    2.01 382.515   2.585
 384.753   2.646 407.247   3.257 408.054   3.279 431.355   3.915 431.989   3.925
 455.659   4.238 457.238   4.263  470.02    4.49
#Mann= 2 ,0,0
       0     .02       0  470.02    .023       0
Bank Sta=0,470.02
XS Rating Curve= 0 ,0
XS HTab Starting El and Incr=-3.79,0.3, 30 
XS HTab Horizontal Distribution= 5 , 5 , 5 
Exp/Cntr=0.3,0.1

Type RM Length L Ch R = 1 ,10.200* ,100,100,100
Node Last Edited Time=Aug-27-2025 03:22:02
#Sta/Elev= 73 
       0    5.11    3.92   4.323   6.881   3.691   8.985   3.157  14.055   1.868
  19.126     .58  23.828   -.308  26.442   -.858  29.899  -1.384  39.896  -2.529
  41.452  -2.757  49.037   -3.33  58.578   -3.92  69.152  -3.686  71.219   -3.64
  79.516  -3.331  85.713  -3.112  92.561  -2.847  95.996  -2.728 107.463  -2.126
  109.09  -2.073 118.556  -1.746 126.649  -1.757 130.003  -1.761 140.726   -1.85
  141.46  -1.863 149.257  -1.224 153.453   -.717 157.455   -.294 162.401    .158
 163.505    .231 172.886    .754 173.497    .764 183.899    .888 185.932    .909
 193.194   1.114 195.922   1.188 200.093   1.272 207.623   1.442 209.798    1.48
 216.622   1.537 219.362   1.548 225.831   1.573  229.17   1.565 235.432   1.595
 239.766   1.611 244.364   1.513 247.641   1.551 253.612   1.886 254.604   1.917
 263.592   1.892  267.85   1.786 270.808   1.725 280.246    1.74 280.575   1.742
 291.921    1.64 301.203   1.593 302.963    1.58 314.187     1.5  321.12   1.575
 321.616   1.582 334.085   1.873  345.56   1.859 349.206   1.855 370.009   2.477
 372.222   2.543 394.449   3.205 395.247   3.229 418.273   3.917 418.899   3.926
 442.289   4.234 443.849   4.257  456.48    4.47
#Mann= 2 ,0,0
       0     .02       0  456.48    .023       0
Bank Sta=0,456.48
XS Rating Curve= 0 ,0
XS HTab Starting El and Incr=-3.77,0.3, 30 
XS HTab Horizontal Distribution= 5 , 5 , 5 
Exp/Cntr=0.3,0.1

Type RM Length L Ch R = 1 ,10      ,100,100,100
Node Last Edited Time=Aug-27-2025 01:45:41
#Sta/Elev= 37 
       0    5.11    5.85    3.91   22.48     -.5   35.24    -2.8    49.8    -3.9
   62.29    -3.7   76.61    -3.2   86.77    -2.8    98.1    -2.1  109.06    -1.7
  120.37    -1.8  131.69      -2  143.54     -.7  152.38      .1  162.74      .7
  175.63      .8   185.5     1.1  199.21     1.4  208.66     1.5  218.35     1.6
  228.82     1.8   236.6     1.7  243.48       2  252.36       2  259.49     1.8
  269.14     1.8  280.35     1.6  291.26     1.5  302.35     1.4  309.69     1.5
  322.01     1.8  336.95     1.7  359.69    2.44  382.44    3.18  405.19    3.92
  430.46    4.25  442.94    4.45
#Mann= 3 ,0,0
       0    .023       0       0     .02       0  442.94    .023       0
Bank Sta=0,442.94
XS Rating Curve= 0 ,0
XS HTab Starting El and Incr=-3.75,0.3, 30 
XS HTab Horizontal Distribution= 5 , 5 , 5 
Exp/Cntr=0.3,0.1

Type RM Length L Ch R = 1 ,9.8000* ,100,100,100
Node Last Edited Time=Aug-27-2025 03:22:02
#Sta/Elev= 62 
       0   5.144   2.158   4.582   5.797   3.563   7.183   3.262  10.761   2.344
  15.726   1.072  23.469   -.346  27.603  -1.031  29.179  -1.205  34.873  -1.894
  40.096  -2.447   43.27  -2.879  44.429  -2.957  51.047  -3.243   56.04  -3.529
  61.148    -3.9  71.132  -3.744   72.89  -3.675  86.352  -2.932  93.073  -2.535
  95.904    -2.4 106.555  -1.687 108.478    -1.6 116.859  -1.293 127.492  -1.313
 129.828  -1.335 138.134  -1.447 149.274    -.39 155.365    .089 157.585    .263
 167.324    .759 179.442    .858 180.902    .898 188.721   1.112  201.61   1.372
 206.453   1.424 210.494   1.466 219.604   1.561 229.447   1.736  231.99   1.712
 236.761   1.657 243.229   1.892 251.577   1.886  258.28   1.722 260.815    1.72
 267.352   1.704 277.159   1.531 277.891   1.521 288.148   1.455 298.574   1.389
 305.474   1.478 306.897   1.509 317.056   1.782 331.101   1.787 334.648   1.906
  352.48   2.508 362.399   2.843 373.867   3.229  390.15   3.779 395.255   3.931
 419.011   4.245 430.744    4.43
#Mann= 2 ,0,0
       0     .02       0 430.744    .023       0
Bank Sta=0,430.744
XS Rating Curve= 0 ,0
XS HTab Starting El and Incr=-3.75,0.3, 30 
XS HTab Horizontal Distribution= 5 , 5 , 5 
Exp/Cntr=0.3,0.1

Type RM Length L Ch R = 1 ,9.6000* ,100,100,100
Node Last Edited Time=Aug-27-2025 03:22:02
#Sta/Elev= 62 
       0   5.178   2.559   4.414   6.873   2.985   8.516   2.614  12.759    1.55
  18.645    .079  27.824  -1.084  32.725  -1.562  34.594  -1.679  41.345   -2.22
  47.537   -2.56    51.3  -2.957  52.674  -3.043   60.52  -3.207   66.44  -3.471
  72.496    -3.9  81.844  -3.758   83.49   -3.65  96.095  -2.663 102.387  -2.151
 105.038  -1.999 115.011  -1.275 116.811  -1.175 124.658   -.886 134.614   -.826
 136.801   -.826 144.578   -.894 155.008   -.079 160.711    .292  162.79    .427
 171.909    .817 183.255    .915 184.622    .948 191.943   1.124 204.011   1.345
 208.545   1.393 212.329   1.433 220.858   1.521 230.074   1.672 232.455   1.659
 236.922   1.613 242.978   1.784 250.795   1.773 257.071   1.644 259.443    1.64
 265.565   1.608 274.747   1.448 275.432   1.442 285.035    1.41 294.797   1.378
 301.258   1.456  302.59   1.482 312.102   1.763 325.253   1.873 328.573    1.99
 345.269   2.576 354.557   2.902 365.294   3.279  380.54   3.814 385.319   3.942
 407.563    4.24 418.548    4.41
#Mann= 2 ,0,0
       0     .02       0 418.548    .023       0
Bank Sta=0,418.548
XS Rating Curve= 0 ,0
XS HTab Starting El and Incr=-3.75,0.3, 30 
XS HTab Horizontal Distribution= 5 , 5 , 5 
Exp/Cntr=0.3,0.1

Type RM Length L Ch R = 1 ,9.4000* ,100,100,100
Node Last Edited Time=Aug-27-2025 03:22:02
#Sta/Elev= 62 
       0   5.212   2.959   4.246   7.948   2.407   9.849   1.966  14.756    .757
  21.563   -.914  32.179  -1.823  37.848  -2.093   40.01  -2.153  47.816  -2.547
  54.978  -2.674  59.331  -3.036   60.92  -3.129  69.993  -3.171   76.84  -3.414
  83.844    -3.9  92.556  -3.772   94.09  -3.625 105.837  -2.395 111.701  -1.767
 114.172  -1.599 123.466   -.862 125.144    -.75 132.457   -.479 141.735   -.339
 143.774   -.318 151.022   -.341 160.743    .231 166.058    .495 167.994     .59
 176.493    .876 187.067    .973 188.341    .999 195.164   1.137 206.411   1.317
 210.636   1.362 214.163   1.399 222.112   1.482 230.701   1.608  232.92   1.606
 237.083    1.57 242.727   1.677 250.012   1.659 255.861   1.565 258.072    1.56
 263.777   1.512 272.335   1.366 272.973   1.363 281.923   1.364 291.021   1.366
 297.042   1.434 298.283   1.455 307.148   1.745 319.404    1.96 322.499   2.073
 338.059   2.644 346.715   2.961 356.721   3.328  370.93   3.849 375.384   3.952
 396.114   4.235 406.352    4.39
#Mann= 2 ,0,0
       0     .02       0 406.352    .023       0
Bank Sta=0,406.352
XS Rating Curve= 0 ,0
XS HTab Starting El and Incr=-3.75,0.3, 30 
XS HTab Horizontal Distribution= 5 , 5 , 5 
Exp/Cntr=0.3,0.1

Type RM Length L Ch R = 1 ,9.2000* ,100,100,100
Node Last Edited Time=Aug-27-2025 03:22:02
#Sta/Elev= 62 
       0   5.246    3.36   4.078   9.024   1.828  11.182   1.317  16.753   -.037
  24.482  -1.907  36.535  -2.561   42.97  -2.624  45.425  -2.626  54.288  -2.873
  62.419  -2.787  67.361  -3.114  69.165  -3.214  79.467  -3.136   87.24  -3.357
  95.192    -3.9 103.268  -3.786  104.69  -3.601  115.58  -2.126 121.016  -1.384
 123.306  -1.198 131.922    -.45 133.477   -.325 140.256   -.072 148.857    .147
 150.747    .191 157.465    .212 166.477    .542 171.404    .697 173.199    .754
 181.077    .935  190.88   1.031 192.061   1.049 198.385   1.149 208.811    1.29
 212.728   1.331 215.997   1.365 223.366   1.442 231.328   1.544 233.385   1.553
 237.244   1.527 242.476   1.569 249.229   1.546 254.651   1.487 256.701    1.48
  261.99   1.416 269.922   1.283 270.514   1.284 278.811   1.319 287.244   1.355
 292.826   1.412 293.977   1.427 302.195   1.726 313.556   2.046 316.424   2.157
 330.848   2.712 338.872   3.021 348.149   3.378  361.32   3.885 365.449   3.963
 384.666   4.231 394.156    4.37
#Mann= 2 ,0,0
       0     .02       0 394.156    .023       0
Bank Sta=0,394.156
XS Rating Curve= 0 ,0
XS HTab Starting El and Incr=-3.75,0.3, 30 
XS HTab Horizontal Distribution= 5 , 5 , 5 
Exp/Cntr=0.3,0.1

Type RM Length L Ch R = 1 ,9       ,100,100,100
Node Last Edited Time=Aug-27-2025 01:46:58
#Sta/Elev= 28 
       0    5.28    3.76    3.91    10.1    1.25   18.75    -.83    27.4    -2.9
   40.89    -3.3   50.84    -3.1   60.76    -3.2   69.86    -2.9   77.41    -3.3
   88.94    -3.1   97.64    -3.3  106.54    -3.9  113.98    -3.8  130.33      -1
  141.81      .1  157.72      .7  176.75      .9  195.78     1.1  214.82     1.3
  233.85     1.5  255.33     1.4  267.51     1.2  289.67     1.4  310.35    2.24
  331.03    3.08  351.71    3.92  381.96    4.35
#Mann= 3 ,0,0
       0    .023       0       0     .02       0  381.96    .023       0
Bank Sta=0,381.96
XS Rating Curve= 0 ,0
XS HTab Starting El and Incr=-3.75,0.3, 30 
XS HTab Horizontal Distribution= 5 , 5 , 5 
Exp/Cntr=0.3,0.1

Type RM Length L Ch R = 1 ,8.8000* ,100,100,100
Node Last Edited Time=Aug-27-2025 03:22:02
#Sta/Elev= 58 
       0   5.094   1.872   4.509   4.128   3.675   7.842   2.153  11.089   1.134
  17.681   -.075  20.587   -.635  25.677  -1.612  30.084  -2.462  34.248   -2.63
  43.225  -2.884  44.895  -2.924  51.258  -2.847   55.82  -2.803  59.166  -2.845
  66.602  -2.919  66.712  -2.921  73.987  -2.845  76.703  -2.809  81.394  -3.041
  84.993  -3.199  88.801  -3.172  96.038    -3.2  97.652  -3.221 103.113  -3.451
 107.204  -3.687 109.967  -3.936 116.976   -4.44 123.967    -4.2 130.061  -3.171
 139.329  -1.748  142.93  -1.426 150.116   -.595 161.089    .132 165.065    .441
 174.268    .942 182.945    1.02 189.628    1.08 200.826   1.218 213.091    1.37
 218.716    1.43  235.02   1.606 236.596   1.611 248.966   1.491 256.779   1.415
 262.926   1.294 268.223     1.2 273.708   1.222 289.045    1.36 289.243   1.367
 305.733   2.119 308.475   2.244 322.224   2.869 327.906   3.129 338.714   3.622
 347.337   3.933 363.281   4.151  375.76    4.33
#Mann= 2 ,0,0
       0     .02       0  375.76    .023       0
Bank Sta=0,375.76
XS Rating Curve= 0 ,0
XS HTab Starting El and Incr=-4.29,0.3, 32 
XS HTab Horizontal Distribution= 5 , 5 , 5 
Exp/Cntr=0.3,0.1

Type RM Length L Ch R = 1 ,8.6000* ,100,100,100
Node Last Edited Time=Aug-27-2025 03:22:02
#Sta/Elev= 58 
       0   4.908   2.039   4.359   4.497    3.44   8.541   1.815  12.079   1.017
  19.258    .044  22.423    -.44  27.968  -1.284  32.768  -2.025  37.304  -2.247
  47.081  -2.513  48.901  -2.548  55.831   -2.51    60.8  -2.506  64.445  -2.558
  72.544  -2.639  72.663  -2.643  80.588  -2.709  83.546  -2.719  88.655  -2.956
  92.575  -3.099  96.723  -3.104 104.606  -3.275 106.364  -3.342 112.312  -3.689
 116.768  -4.074 119.778  -4.402 127.412   -4.98 133.953  -4.599 139.655  -3.654
 148.328  -2.496 151.697   -2.22 158.421  -1.289  168.69   -.276 172.409    .182
 181.021   1.082  189.14    1.14 195.393   1.185 205.871   1.336 217.348   1.502
 222.611   1.561 237.867   1.729 239.342   1.722 250.917   1.543 258.227    1.43
 263.979   1.296 268.936   1.201 274.069   1.192 288.419   1.319 288.605   1.325
 304.035   2.117 306.601   2.248 319.465   2.905 324.783   3.177 334.895   3.696
 342.964   3.947 357.883   4.141  369.56    4.31
#Mann= 2 ,0,0
       0     .02       0  369.56    .023       0
Bank Sta=0,369.56
XS Rating Curve= 0 ,0
XS HTab Starting El and Incr=-4.83,0.3, 33 
XS HTab Horizontal Distribution= 5 , 5 , 5 
Exp/Cntr=0.3,0.1

Type RM Length L Ch R = 1 ,8.4000* ,100,100,100
Node Last Edited Time=Aug-27-2025 03:22:02
#Sta/Elev= 58 
       0   4.722   2.206    4.21   4.865   3.205   9.241   1.476  13.068    .901
  20.835    .163   24.26   -.245  30.258   -.956  35.452  -1.587  40.359  -1.865
  50.937  -2.142  52.906  -2.172  60.404  -2.173   65.78  -2.209  69.723  -2.272
  78.486   -2.36  78.615  -2.364  87.189  -2.573  90.389  -2.628  95.917  -2.871
 100.158  -2.998 104.645  -3.036 113.174   -3.35 115.076  -3.463 121.512  -3.926
 126.333  -4.461 129.589  -4.868 137.848   -5.52  143.94  -4.999  149.25  -4.136
 157.327  -3.244 160.465  -3.013 166.727  -1.984  176.29   -.684 179.754   -.077
 187.774   1.221 195.335    1.26 201.159    1.29 210.917   1.455 221.606   1.635
 226.507   1.691 240.715   1.853 242.089   1.833 252.868   1.595 259.676   1.446
 265.033   1.297 269.649   1.201 274.429   1.161 287.794   1.279 287.966   1.283
 302.337   2.115 304.726   2.252 316.707    2.94 321.659   3.226 331.077   3.771
 338.591    3.96 352.486    4.13  363.36    4.29
#Mann= 2 ,0,0
       0     .02       0  363.36    .023       0
Bank Sta=0,363.36
XS Rating Curve= 0 ,0
XS HTab Starting El and Incr=-5.37,0.3, 34 
XS HTab Horizontal Distribution= 5 , 5 , 5 
Exp/Cntr=0.3,0.1

Type RM Length L Ch R = 1 ,8.2000* ,100,100,100
Node Last Edited Time=Aug-27-2025 03:22:02
#Sta/Elev= 58 
       0   4.536   2.373    4.06   5.233    2.97    9.94   1.138  14.057    .784
  22.413    .281  26.097    -.05  32.549   -.628  38.136  -1.149  43.415  -1.482
  54.794  -1.771  56.911  -1.797  64.977  -1.837   70.76  -1.912  75.002  -1.986
  84.428   -2.08  84.567  -2.086  93.789  -2.436  97.232  -2.537 103.178  -2.785
  107.74  -2.898 112.568  -2.968 121.742  -3.425 123.788  -3.584 130.711  -4.163
 135.897  -4.849 139.399  -5.334 148.284   -6.06 153.926  -5.399 158.845  -4.618
 166.326  -3.992 169.232  -3.807 175.032  -2.679  183.89  -1.092 187.098   -.336
 194.527   1.361 201.531    1.38 206.924   1.395 215.963   1.573 225.863   1.767
 230.403   1.821 243.562   1.976 244.835   1.944 254.819   1.648 261.125   1.461
 266.086   1.299 270.362   1.201  274.79   1.131 287.168   1.239 287.328   1.242
 300.638   2.112 302.852   2.256 313.948   2.975 318.535   3.275 327.258   3.845
 334.219   3.973 347.088    4.12  357.16    4.27
#Mann= 2 ,0,0
       0     .02       0  357.16    .023       0
Bank Sta=0,357.16
XS Rating Curve= 0 ,0
XS HTab Starting El and Incr=-5.91,0.3, 35 
XS HTab Horizontal Distribution= 5 , 5 , 5 
Exp/Cntr=0.3,0.1

Type RM Length L Ch R = 1 ,8       ,100,100,100
Node Last Edited Time=Aug-27-2025 01:48:43
#Sta/Elev= 33 
       0    4.35    2.54    3.91   10.64      .8   23.99      .4   34.84     -.3
   46.47    -1.1   58.65    -1.4   69.55    -1.5   80.28    -1.7   90.37    -1.8
  100.39    -2.3  110.44    -2.7  120.49    -2.9  130.31    -3.5  139.91    -4.4
  149.21    -5.8  158.72    -6.6  168.44    -5.1     178    -4.6  191.49    -1.5
  201.28     1.5  212.69     1.5  230.12     1.9  246.41     2.1  256.77     1.7
  267.14     1.3  275.15     1.1  286.69     1.2  298.94    2.11  311.19    3.01
  323.44    3.92  341.69    4.11  350.96    4.25
#Mann= 3 ,0,0
       0    .023       0       0     .02       0  350.96    .023       0
Bank Sta=0,350.96
XS Rating Curve= 0 ,0
XS HTab Starting El and Incr=-6.45,0.3, 36 
XS HTab Horizontal Distribution= 5 , 5 , 5 
Exp/Cntr=0.3,0.1

Type RM Length L Ch R = 1 ,7.8000* ,100,100,100
Node Last Edited Time=Aug-27-2025 03:22:02
#Sta/Elev= 62 
       0   4.852       3   4.363  12.565   1.437  12.896   1.415    24.8    1.08
  28.331     .98  36.711    .548  41.144    .319  48.615   -.088  54.879   -.392
  58.758   -.465    62.9   -.594  69.263   -.732  70.929    -.75  78.307   -.856
  82.135   -.891  85.238   -.939  92.313  -1.049  94.806    -1.1  97.211  -1.136
 103.987  -1.242 106.722  -1.294  110.51  -1.468 118.555  -1.799 118.756  -1.805
 125.235   -2.02 130.424  -2.208 131.695  -2.237   138.1  -2.383 142.292  -2.528
 144.796  -2.684  149.93  -3.116 153.889   -3.31 157.884  -3.594 164.717  -4.048
 165.226  -4.086 171.469  -4.797 176.209  -5.315 176.919   -5.36 182.796  -5.875
  187.44   -6.22 195.734  -5.008 203.892  -4.596 215.393  -2.102 223.756    .331
 233.492    .367 247.702    .726 248.365    .744 262.266    .993 271.106    .729
 279.177    .488 279.955     .47 286.789    .401 296.637    .611 304.921   1.297
 307.089   1.463 317.542   2.257 327.687   3.035 327.995   3.071 343.568       4
 344.978    4.09 351.478   4.382
#Mann= 2 ,0,0
       0     .02       0 351.478    .023       0
Bank Sta=0,351.478
XS Rating Curve= 0 ,0
XS HTab Starting El and Incr=-6.07,0.3, 37 
XS HTab Horizontal Distribution= 5 , 5 , 5 
Exp/Cntr=0.3,0.1

Type RM Length L Ch R = 1 ,7.6000* ,100,100,100
Node Last Edited Time=Aug-27-2025 03:22:02
#Sta/Elev= 62 
       0   5.354   3.459   4.816  14.491   2.074  14.872   2.039    28.6    1.67
  32.672    1.56  42.335   1.153  47.448    .938  56.063    .559  63.287    .315
  67.761    .251  72.537     .08  79.875   -.063  81.796   -.088  90.305   -.242
   94.72   -.282  98.299   -.329 106.457   -.436 109.333   -.501 112.105   -.552
  119.92   -.706 123.074   -.787 127.442   -.976 136.721  -1.297 136.952  -1.304
 144.424  -1.515 150.408  -1.716 151.874  -1.753  159.26  -1.938 164.095  -2.155
 166.982  -2.338 172.902  -2.937 177.469   -3.12 182.076   -3.37 189.955  -3.736
 190.543  -3.772 197.742  -4.397 203.208   -4.83 204.026   -4.87 210.805  -5.482
  216.16   -5.84 223.028  -4.916 229.783  -4.593 239.307  -2.701 246.233   -.838
 254.295   -.766 266.061   -.431 266.611   -.412 278.121   -.115 285.442   -.243
 292.125   -.359 292.769   -.359 298.429   -.299 306.583    .021 313.443    .673
 315.239    .816 323.895   1.503 332.295   2.176  332.55   2.223 345.446   3.889
 346.613   4.045 351.996   4.514
#Mann= 2 ,0,0
       0     .02       0 351.996    .023       0
Bank Sta=0,351.996
XS Rating Curve= 0 ,0
XS HTab Starting El and Incr=-5.69,0.3, 37 
XS HTab Horizontal Distribution= 5 , 5 , 5 
Exp/Cntr=0.3,0.1

Type RM Length L Ch R = 1 ,7.4000* ,100,100,100
Node Last Edited Time=Aug-27-2025 03:22:02
#Sta/Elev= 62 
       0   5.856   3.919   5.268  16.416   2.711  16.848   2.663    32.4    2.26
  37.013    2.14   47.96   1.759  53.753   1.557  63.512   1.206  71.696   1.023
  76.764    .968  82.175    .753  90.488    .605  92.664    .575 102.303    .372
 107.305    .327 111.359     .28 120.601    .176 123.859    .099     127    .032
 135.854   -.171 139.427   -.281 144.375   -.484 154.886   -.796 155.148   -.803
 163.612   -1.01 170.392  -1.225 172.053  -1.269  180.42  -1.492 185.897  -1.783
 189.168  -1.992 195.875  -2.758 201.048   -2.93 206.267  -3.147 215.193  -3.424
 215.859  -3.458 224.014  -3.998 230.208  -4.344 231.134   -4.38 238.813  -5.088
  244.88   -5.46 250.322  -4.824 255.675  -4.589 263.222  -3.301 268.709  -2.007
 275.097  -1.898 284.421  -1.587 284.856  -1.567 293.977  -1.222 299.778  -1.214
 305.074  -1.206 305.584  -1.189 310.068   -.998  316.53   -.568 321.966    .048
 323.388     .17 330.247     .75 336.904   1.317 337.106   1.374 347.324   3.779
 348.249       4 352.514   4.646
#Mann= 2 ,0,0
       0     .02       0 352.514    .023       0
Bank Sta=0,352.514
XS Rating Curve= 0 ,0
XS HTab Starting El and Incr=-5.31,0.3, 38 
XS HTab Horizontal Distribution= 5 , 5 , 5 
Exp/Cntr=0.3,0.1

Type RM Length L Ch R = 1 ,7.2000* ,100,100,100
Node Last Edited Time=Aug-27-2025 03:22:02
#Sta/Elev= 62 
       0   6.358   4.378   5.721  18.341   3.349  18.824   3.286    36.2    2.85
  41.354   2.721  53.585   2.364  60.057   2.176  70.961   1.853  80.105   1.731
  85.767   1.684  91.812   1.427   101.1   1.273 103.532   1.237 114.302    .986
  119.89    .936  124.42     .89 134.746    .788 138.386    .699 141.895    .616
 151.787    .365 155.779    .226 161.307    .008 173.051   -.294 173.344   -.301
 182.801   -.505 190.375   -.733 192.231   -.784  201.58  -1.046   207.7  -1.411
 211.354  -1.646 218.847  -2.579 224.627  -2.739 230.459  -2.923 240.432  -3.112
 241.176  -3.144 250.287  -3.599 257.207  -3.859 258.242   -3.89 266.822  -4.694
   273.6   -5.08 277.616  -4.733 281.566  -4.586 287.136    -3.9 291.185  -3.176
   295.9  -3.031  302.78  -2.744 303.102  -2.723 309.833   -2.33 314.113  -2.185
 318.022  -2.053 318.398  -2.019 321.708  -1.698 326.476  -1.158 330.488   -.576
 331.538   -.477 336.599   -.003 341.512    .459 341.661    .525 349.202   3.669
 349.884   3.955 353.032   4.778
#Mann= 2 ,0,0
       0     .02       0 353.032    .023       0
Bank Sta=0,353.032
XS Rating Curve= 0 ,0
XS HTab Starting El and Incr=-4.93,0.3, 38 
XS HTab Horizontal Distribution= 5 , 5 , 5 
Exp/Cntr=0.3,0.1

Type RM Length L Ch R = 1 ,7       ,100,100,100
Node Last Edited Time=Aug-27-2025 01:50:01
#Sta/Elev= 33 
       0    6.86    20.8    3.91      40    3.44   59.21    2.97   78.41     2.5
   94.77     2.4  101.45     2.1   114.4     1.9   126.3     1.6  137.48     1.5
  148.89     1.4  156.79     1.2  167.72      .9  178.24      .5  191.54      .2
  201.99       0  212.41     -.3  222.74     -.6  233.54    -1.3  241.82    -2.4
  254.65    -2.7  265.67    -2.8  276.56    -3.2  285.35    -3.4  294.83    -4.3
  302.32    -4.7  311.05    -4.5  321.14    -3.9  330.97    -2.9  339.01    -1.2
  346.12     -.4  351.52    3.91  353.55    4.91
#Mann= 3 ,0,0
       0    .023       0       0     .02       0  353.55    .023       0
Bank Sta=0,353.55
XS Rating Curve= 0 ,0
XS HTab Starting El and Incr=-4.55,0.3, 38 
XS HTab Horizontal Distribution= 5 , 5 , 5 
Exp/Cntr=0.3,0.1

Type RM Length L Ch R = 1 ,6.8000* ,100,100,100
Node Last Edited Time=Aug-27-2025 03:22:02
#Sta/Elev= 61 
       0   6.996  19.936   4.071  25.632   3.794  38.339   3.452  42.301   3.345
  56.751   2.958  58.969   2.899  75.154   2.463  75.638   2.458  90.835   2.364
  95.101     2.2  97.237   2.109 107.076   1.933 109.649   1.896 119.378   1.675
 121.055    1.64 131.771    1.56 135.212   1.535 142.707   1.448 149.135   1.284
 150.279    1.26 160.755    1.02 162.816    .955 170.839    .684 173.049    .638
 183.586    .377 186.476    .314 193.602    .121 199.056   -.071  203.59   -.222
 213.491   -.552 216.511   -.743 223.842  -1.246 228.982   -1.89 231.778  -2.248
 241.683  -2.613 244.076  -2.709 254.397  -2.998 254.638  -3.006 265.076  -3.571
  265.44  -3.587 273.501  -3.957 278.045   -4.44 282.587   -4.94 289.766   -5.48
 290.596   -5.48 299.671  -4.921 299.684  -4.919 308.278  -3.906  310.16  -3.736
 312.549  -3.443 316.568  -3.002 320.378  -2.667 323.104  -2.196 328.736   -.935
 328.746   -.933  334.38   -.099 336.126    .159 340.022   2.791  341.74   3.897
  343.85    4.76
#Mann= 2 ,0,0
       0     .02       0  343.85    .023       0
Bank Sta=0,343.85
XS Rating Curve= 0 ,0
XS HTab Starting El and Incr=-5.33,0.3, 41 
XS HTab Horizontal Distribution= 5 , 5 , 5 
Exp/Cntr=0.3,0.1

Type RM Length L Ch R = 1 ,6.6000* ,100,100,100
Node Last Edited Time=Aug-27-2025 03:22:02
#Sta/Elev= 61 
       0   7.132  19.073   4.233  24.521   3.823  36.678   3.463  40.468   3.351
  54.293   2.946  56.414   2.884  71.898   2.426  72.361   2.418  86.899   2.329
  90.981     2.2  93.024   2.119 102.437   1.925 104.899   1.892 114.206   1.706
 115.811    1.68 126.062    1.62 129.354   1.601 136.525   1.495 142.674   1.338
 143.768    1.32 153.791    1.14 155.762   1.091 163.437    .869 165.552    .829
 175.632    .554 178.397    .485 185.215    .241 190.432    .022 194.769   -.143
 204.241   -.505 207.131   -.683 214.144  -1.192 219.062  -1.767 221.737  -2.097
 231.213  -2.585 233.501  -2.718 243.375  -3.199 243.606  -3.211 253.591  -3.943
  253.94  -3.965 261.651  -4.515 265.999   -5.03 270.344  -5.579 277.212   -6.26
 278.872   -6.26 288.292  -5.341 288.306   -5.34 297.226  -3.805 299.179  -3.573
 301.659   -3.22 305.831  -2.732 309.786  -2.433 312.615  -2.047 318.461   -.669
 318.472   -.667  324.32    .391 326.133    .718 330.176   2.991  331.96   3.884
  334.15    4.61
#Mann= 2 ,0,0
       0     .02       0  334.15    .023       0
Bank Sta=0,334.15
XS Rating Curve= 0 ,0
XS HTab Starting El and Incr=-6.11,0.3, 44 
XS HTab Horizontal Distribution= 5 , 5 , 5 
Exp/Cntr=0.3,0.1

Type RM Length L Ch R = 1 ,6.4000* ,100,100,100
Node Last Edited Time=Aug-27-2025 03:22:02
#Sta/Elev= 61 
       0   7.268  18.209   4.394  23.411   3.852  35.017   3.475  38.635   3.358
  51.834   2.934   53.86   2.869  68.642   2.389  69.084   2.379  82.964   2.293
   86.86     2.2  88.812   2.128  97.798   1.917 100.148   1.887 109.034   1.738
 110.566    1.72 120.353    1.68 123.496   1.667 130.342   1.543 136.212   1.392
 137.258    1.38 146.826    1.26 148.708   1.227 156.035   1.053 158.055   1.019